tests/fuzzer/corpus_json/24_columnar_21_random_000.json
{
  "version": "1.0",
  "type": "input",
  "is_batch": false,
  "attributes": {
    "node": [
      "id",
      "u_rated"
    ],
    "source": [
      "id",
      "node",
      "status",
      "u_ref",
      "u_ref_angle",
      "sk",
      "rx_ratio",
      "z01_ratio"
    ],
    "line": [
      "id",
      "from_node",
      "to_node",
      "from_status",
      "to_status",
      "r1",
      "x1",
      "c1",
      "tan1",
      "r0",
      "x0",
      "c0",
      "tan0",
      "i_n"
    ],
    "sym_load": [
      "id",
      "node",
      "status",
      "type",
      "p_specified",
      "q_specified"
    ]
  },
  "data": {
    "node": [
      [
        0,
        110000.0
      ],
      [
        1,
        110000.0
      ],
      [
        2,
        110000.0
      ],
      [
        3,
        110000.0
      ],
      [
        4,
        110000.0
      ],
      [
        5,
        110000.0
      ],
      [
        6,
        110000.0
      ],
      [
        7,
        110000.0
      ],
      [
        8,
        110000.0
      ],
      [
        9,
        110000.0
      ],
      [
        10,
        110000.0
      ],
      [
        11,
        110000.0
      ],
      [
        12,
        110000.0
      ],
      [
        13,
        110000.0
      ],
      [
        14,
        110000.0
      ]
    ],
    "source": [
      [
        15,
        0,
        1,
        0.9841143161661691,
        0.0,
        757978607.5000085,
        0.12945837514648167,
        1.0
      ]
    ],
    "line": [
      [
        16,
        0,
        1,
        1,
        1,
        2.0246706872520717,
        3.918992945173863,
        3.0331272607892745e-07,
        0.0,
        0.3,
        0.3,
        1e-09,
        0.0,
        481.8309846108323
      ],
      [
        17,
        1,
        2,
        1,
        1,
        2.916910197275156,
        4.540564425976676,
        5.046868558173903e-07,
        0.0,
        0.3,
        0.3,
        1e-09,
        0.0,
        289.0194659557068
      ],
      [
        18,
        2,
        3,
        1,
        1,
        3.7790210207861197,
        3.0918449833766584,
        2.5050634136244053e-07,
        0.0,
        0.3,
        0.3,
        1e-09,
        0.0,
        910.6487934085577
      ],
      [
        19,
        3,
        4,
        1,
        1,
        4.913927380188266,
        4.051086179982947,
        9.021659504395826e-07,
        0.0,
        0.3,
        0.3,
        1e-09,
        0.0,
        317.0460936261393
      ],
      [
        20,
        4,
        5,
        1,
        1,
        3.649158741300643,
        4.494191439839968,
        6.839839319154412e-07,
        0.0,
        0.3,
        0.3,
        1e-09,
        0.0,
        477.4212882981862
      ],
      [
        21,
        5,
        6,
        1,
        1,
        0.503506040341829,
        2.1708591772689183,
        6.108869734438016e-07,
        0.0,
        0.3,
        0.3,
        1e-09,
        0.0,
        913.8809427055193
      ],
      [
        22,
        6,
        7,
        1,
        1,
        4.833031838853794,
        2.385048882763585,
        8.6530992777164e-07,
        0.0,
        0.3,
        0.3,
        1e-09,
        0.0,
        267.8873872880398
      ],
      [
        23,
        7,
        8,
        1,
        1,
        4.025139135065111,
        2.7434965191779463,
        1.4041700164018955e-08,
        0.0,
        0.3,
        0.3,
        1e-09,
        0.0,
        722.5076395399146
      ],
      [
        24,
        8,
        9,
        1,
        1,
        1.9941177111213437,
        4.124224885741165,
        6.681532012318508e-07,
        0.0,
        0.3,
        0.3,
        1e-09,
        0.0,
        11.131391121283995
      ],
      [
        25,
        9,
        10,
        1,
        1,
        2.467889332326623,
        4.338013877463904,
        2.43910876887132e-07,
        0.0,
        0.3,
        0.3,
        1e-09,
        0.0,
        331.9523191199162
      ],
      [
        26,
        10,
        11,
        1,
        1,
        4.352356160543273,
        0.9553354575119527,
        5.675107406206718e-07,
        0.0,
        0.3,
        0.3,
        1e-09,
        0.0,
        246.22976932906798
      ],
      [
        27,
        11,
        12,
        1,
        1,
        4.837701251450717,
        4.01589734639935,
        4.479695714355704e-07,
        0.0,
        0.3,
        0.3,
        1e-09,
        0.0,
        89.64136036701005
      ],
      [
        28,
        12,
        13,
        1,
        1,
        1.6002730233627287,
        2.53970321260287,
        9.328338242269068e-07,
        0.0,
        0.3,
        0.3,
        1e-09,
        0.0,
        117.96726747179264
      ],
      [
        29,
        13,
        14,
        1,
        1,
        2.756336230452756,
        3.532807049334448,
        5.474409113284237e-07,
        0.0,
        0.3,
        0.3,
        1e-09,
        0.0,
        816.3221946584226
      ]
    ],
    "sym_load": [
      [
        30,
        1,
        1,
        2,
        9446.021299983637,
        -4246.85471579596
      ],
      [
        31,
        2,
        1,
        1,
        -36590.630448384574,
        -5157.856897960678
      ],
      [
        32,
        3,
        1,
        0,
        -93405.5170226497,
        9625.994809964206
      ],
      [
        33,
        4,
        1,
        0,
        -82035.12776088127,
        5152.078439328736
      ],
      [
        34,
        10,
        1,
        1,
        67573.04624510315,
        491.47878224165834
      ],
      [
        35,
        11,
        1,
        0,
        69897.19303727342,
        7900.779348533506
      ],
      [
        36,
        12,
        1,
        1,
        15939.002149121181,
        -988.7378673768962
      ]
    ]
  }
}
